114
Geometry from arc file
 C 	 0.70822378 	 0.12585353 	 1.12990033 
 C 	 -0.41804448 	 0.20304310 	 0.41806086 
 H 	 2.34019458 	 -1.26834624 	 1.08381098 
 H 	 1.34574326 	 1.49749447 	 2.65536265 
 H 	 -0.49368877 	 -0.08775895 	 -0.61757106 
 H 	 -1.35543417 	 0.55779991 	 0.81944073 
 C 	 1.29914956 	 4.48578893 	 0.70942396 
 C 	 1.90363243 	 4.22508152 	 2.07405411 
 H 	 1.35446400 	 5.50462931 	 0.31252198 
 H 	 0.12394462 	 2.67480320 	 0.47888987 
 H 	 2.35161278 	 5.04323776 	 2.62840806 
 H 	 1.40103490 	 3.54487763 	 2.75625779 
 C 	 0.03016247 	 3.76972641 	 0.30871348 
 C 	 -2.27112580 	 2.00149213 	 -2.12666865 
 H 	 0.34845600 	 -5.75571578 	 0.45643778 
 H 	 -0.05903547 	 -6.35587896 	 0.23057208 
 H 	 -1.27266792 	 1.84579060 	 -1.72208831 
 H 	 -2.44119869 	 3.05754967 	 -2.31107575 
 C 	 -3.40834370 	 1.13052376 	 -1.64965093 
 C 	 -2.87010966 	 0.96940846 	 -3.05073829 
 H 	 -3.21934075 	 0.36047116 	 -0.90396327 
 H 	 -4.39249202 	 1.56236610 	 -1.49848666 
 H 	 -2.29580370 	 0.08367702 	 -3.31198313 
 H 	 -3.47056019 	 1.28624765 	 -3.89716611 
 C 	 0.95678518 	 -0.48822010 	 3.63709185 
 C 	 0.79321927 	 0.55119501 	 2.54641238 
 H 	 0.98840650 	 -1.54242091 	 3.37207500 
 H 	 1.62641389 	 -0.28934331 	 4.46877728 
 H 	 0.86328216 	 3.22529394 	 5.55962856 
 H 	 0.51101227 	 3.07874332 	 4.90253917 
 C 	 -2.46984808 	 3.57514843 	 1.02062951 
 C 	 -1.15394661 	 4.32242787 	 1.06692531 
 H 	 -1.18141834 	 5.41665213 	 1.07518931 
 H 	 -0.13656466 	 3.87983717 	 -0.78342996 
 H 	 -3.40069550 	 4.12902780 	 0.96841615 
 H 	 -2.54826522 	 2.65797887 	 0.44019631 
 C 	 2.58441787 	 3.69482116 	 0.83702001 
 C 	 1.06884806 	 2.53037613 	 -3.39720189 
 H 	 2.57966772 	 2.62692277 	 0.63110169 
 H 	 3.52328514 	 4.12971628 	 0.50917439 
 H 	 0.09293945 	 2.97964335 	 -3.23561986 
 H 	 1.17444482 	 2.23564292 	 -4.43720704 
 C 	 -3.83278264 	 0.49557108 	 1.81970874 
 C 	 -3.76705279 	 -0.80174654 	 1.53727315 
 H 	 -3.18662629 	 0.99197048 	 2.53034077 
 H 	 -4.54105617 	 1.17292553 	 1.36547327 
 H 	 -3.06047859 	 -1.48149312 	 1.99486613 
 H 	 -4.41732225 	 -1.29431207 	 0.82927123 
 C 	 2.26746389 	 3.04894854 	 -2.64110464 
 C 	 1.69826082 	 1.68930766 	 -2.31373253 
 H 	 3.22389933 	 3.13250029 	 -3.14601583 
 H 	 2.14547567 	 3.86330628 	 -1.92939103 
 H 	 2.25125212 	 0.79138900 	 -2.57662131 
 H 	 1.17126756 	 1.54128784 	 -1.37211257 
 C 	 -0.86099656 	 -2.32973533 	 -2.28390589 
 C 	 1.99069135 	 -0.36750197 	 0.55329278 
 H 	 2.79064389 	 0.38338466 	 0.63777343 
 H 	 -0.96627024 	 -2.82124645 	 -3.26926510 
 H 	 1.90567385 	 -0.63155293 	 -0.51044819 
 H 	 -0.61500497 	 -1.27158157 	 -2.50603085 
 C 	 4.81674314 	 1.61105689 	 -0.53634450 
 C 	 5.37886863 	 1.28529914 	 0.48298653 
 H 	 5.85338025 	 1.01188180 	 1.35625625 
 H 	 4.33244792 	 1.89448477 	 -1.40198774 
 H 	 5.62899212 	 -1.51498558 	 1.63283631 
 H 	 6.06863173 	 -2.05891329 	 1.33594957 
 C 	 -0.33805264 	 0.27351956 	 3.51495232 
 C 	 -1.65814648 	 3.58711640 	 2.29253591 
 H 	 -0.60057235 	 1.01445383 	 4.26379003 
 H 	 -1.23116373 	 -0.23982951 	 3.16346481 
 H 	 -1.15423139 	 2.67893652 	 2.61473139 
 H 	 -2.00600894 	 4.14905809 	 3.15191963 
 C 	 0.28021077 	 -2.96967760 	 -1.49580548 
 C 	 -2.18770480 	 -2.39895321 	 -1.51451973 
 H 	 0.43195345 	 -2.46286263 	 -0.53361224 
 H 	 1.22358550 	 -2.92015909 	 -2.04990791 
 H 	 -2.95143708 	 -1.77626619 	 -2.03088559 
 H 	 0.07273415 	 -4.02393092 	 -1.27962743 
 C 	 2.44078519 	 -3.64853382 	 2.23623696 
 C 	 2.98399185 	 -3.75936903 	 1.02755264 
 H 	 2.99462243 	 -3.36963288 	 3.11985619 
 H 	 1.39341948 	 -3.83352552 	 2.43983310 
 H 	 4.02945538 	 -3.58147428 	 0.82274795 
 H 	 2.42563401 	 -4.04522377 	 0.14744116 
 C 	 -0.61790830 	 0.00662857 	 -5.48328306 
 C 	 0.35547791 	 -0.71416824 	 -4.93492420 
 H 	 -1.25608115 	 -0.35287713 	 -6.27638583 
 H 	 -0.85528523 	 1.01723518 	 -5.18110262 
 H 	 0.59461644 	 -1.72346770 	 -5.23367771 
 H 	 0.99321170 	 -0.34882102 	 -4.14068548 
 C 	 -1.32735483 	 -3.35798587 	 3.18282368 
 C 	 -1.02430253 	 -3.08797221 	 1.91701195 
 H 	 -1.74246290 	 -4.29948509 	 3.51031058 
 H 	 -1.18683374 	 -2.65820679 	 3.99422393 
 H 	 -1.16949543 	 -3.78547947 	 1.10198245 
 H 	 -0.60974231 	 -2.14248845 	 1.58557645 
 C 	 3.82011161 	 -1.52183878 	 -2.07899277 
 C 	 3.43751894 	 -1.49297685 	 -3.35191434 
 H 	 4.41630300 	 -0.74802941 	 -1.61396750 
 H 	 3.57492858 	 -2.32387096 	 -1.39707360 
 H 	 3.69043285 	 -0.69619459 	 -4.03583940 
 H 	 2.84743503 	 -2.26820367 	 -3.81845787 
 C 	 -3.41717213 	 -4.22895597 	 -0.36436820 
 C 	 -2.70034151 	 -3.79791593 	 -1.40247341 
 H 	 -3.80374657 	 -5.23114288 	 -0.28345286 
 H 	 -3.67438854 	 -3.61707044 	 0.48568990 
 H 	 -2.45898957 	 -4.44812287 	 -2.24281342 
 H 	 -2.06402711 	 -1.93544234 	 -0.51227159 
 C 	 4.19830553 	 1.77114784 	 3.69011610 
 C 	 4.17131629 	 0.44244127 	 3.65186111 
 H 	 3.79430324 	 2.40189501 	 2.90825647 
 H 	 4.62403437 	 2.33959713 	 4.50292479 
 H 	 3.73736133 	 -0.12255888 	 2.83770494 
 H 	 4.57289463 	 -0.18792794 	 4.43023781 
