29

H      1.83275     -0.82285      1.45232
H      2.28365      1.46330     -1.50452
C      3.29596      1.38123      0.38352
C      2.08496      1.04832     -0.51639
H      3.07647     -1.93767      0.57218
H      2.64154     -0.86307     -1.50394
H      0.62486     -2.02919     -1.06104
N      0.75000     -1.03253     -0.95564
H      4.10299      1.71773     -0.26729
C      2.62126     -0.95717      0.71183
H      4.64032     -0.28692      0.50321
C      3.74420      0.04776      1.02577
H     -0.03878     -0.41058     -1.06104
H      1.18293      1.33543      0.02400
H      2.93816      2.02617      1.18610
C      2.07909     -0.48760     -0.64910
H      3.76471      0.19077      2.10615
H    5.14032      0.00000      0.00000
H    10.13649     -0.00000      0.00000
C    6.23032     -0.00000      0.00000
C    8.34245     -1.21943      0.00000
H    6.38937     -2.16340     -0.00000
H    6.38937      2.16340     -0.00000
C    9.04649      0.00000      0.00000
H    8.88745     -2.16340     -0.00000
H    8.88745      2.16340     -0.00000
C    8.34245      1.21943     -0.00000
C    6.93437     -1.21943      0.00000
C    6.93437      1.21943     -0.00000
