6
ethene
  H          1.23092       -0.92311        0.00000
  H          1.23092        0.92311        0.00000
  H         -1.23092       -0.92311        0.00000
  C          0.66144        0.00000        0.00000
  H         -1.23092        0.92311        0.00000
  C         -0.66144        0.00000        0.00000
