120
Geometry from arc file
 C 	 -0.03073739 	 0.20088239 	 1.21818040 
 C 	 -0.32015764 	 -0.22761871 	 0.09460230 
 H 	 1.91348305 	 -1.54186287 	 1.16611541 
 H 	 0.75955438 	 1.27299195 	 2.68824662 
 H 	 -0.72041623 	 -0.11547117 	 -0.47911336 
 H 	 -1.91186586 	 0.55745863 	 0.63241987 
 C 	 0.64202328 	 4.55149864 	 0.49887350 
 C 	 1.62524560 	 4.03562189 	 2.39319154 
 H 	 1.07445470 	 5.36547967 	 0.39474043 
 H 	 -0.21063868 	 2.54923940 	 0.47865242 
 H 	 2.08145321 	 4.75959088 	 2.64899280 
 H 	 1.08119615 	 3.30799701 	 2.74533390 
 C 	 -0.23819407 	 3.66035228 	 0.31623088 
 C 	 -2.66463751 	 1.89167069 	 -2.23613205 
 H 	 0.02645342 	 -5.74196326 	 0.38027028 
 H 	 -0.56140409 	 -6.59537958 	 0.06666209 
 H 	 -1.65395422 	 1.74587802 	 -1.83285850 
 H 	 -2.82272580 	 2.96127373 	 -2.42068848 
 C 	 -3.78211248 	 1.04524966 	 -1.75723013 
 C 	 -3.26400657 	 0.87827547 	 -3.13207531 
 H 	 -3.60270630 	 0.26921682 	 -0.99392142 
 H 	 -4.77629739 	 1.47760488 	 -1.58798481 
 H 	 -2.69410415 	 -0.02091226 	 -3.41105221 
 H 	 -3.87057730 	 1.18596194 	 -3.99414601 
 C 	 0.12644776 	 -0.59011835 	 3.60784884 
 C 	 0.33112811 	 0.51200449 	 2.33112892 
 H 	 0.28222337 	 -1.58473102 	 3.43406808 
 H 	 0.86981211 	 -0.40155182 	 4.58103434 
 H 	 0.51406480 	 3.10098467 	 5.45390037 
 H 	 0.08734424 	 3.03160358 	 4.82518162 
 C 	 -2.98571793 	 3.43689734 	 0.79280164 
 C 	 -1.31072719 	 4.33890283 	 0.90173513 
 H 	 -1.48301385 	 5.31371814 	 0.99691138 
 H 	 -0.39521417 	 3.74386513 	 -0.81247255 
 H 	 -3.70961827 	 4.06906875 	 0.79583210 
 H 	 -2.86748559 	 2.57974512 	 0.34386105 
 C 	 2.58148855 	 3.26782254 	 0.65138283 
 C 	 0.74447283 	 2.42700106 	 -3.42340870 
 H 	 2.20235830 	 2.45696222 	 0.55535610 
 H 	 3.18047087 	 3.90697205 	 0.50455864 
 H 	 -0.29912532 	 2.89678374 	 -3.30445707 
 H 	 0.79685838 	 2.14235200 	 -4.53225788 
 C 	 -4.38148892 	 0.51206785 	 1.61284846 
 C 	 -4.05423427 	 -1.00564495 	 1.52017215 
 H 	 -3.55914693 	 0.93354449 	 2.49926504 
 H 	 -4.93305389 	 1.05444845 	 1.29874881 
 H 	 -3.50562860 	 -1.54529110 	 1.83242783 
 H 	 -4.87907225 	 -1.41569193 	 0.63284202 
 C 	 1.84608303 	 2.89465108 	 -2.72865388 
 C 	 1.32386748 	 1.65446820 	 -2.43109567 
 H 	 2.86692678 	 3.03203892 	 -3.23318555 
 H 	 1.77332857 	 3.77850045 	 -1.99285708 
 H 	 1.88665054 	 0.68105275 	 -2.66621924 
 H 	 0.78981163 	 1.43925740 	 -1.43550397 
 C 	 -1.25620712 	 -2.42097684 	 -2.39273179 
 C 	 1.68174245 	 -0.48010049 	 0.53047707 
 H 	 2.50683251 	 0.17933755 	 0.95653278 
 H 	 -1.36884514 	 -2.91299705 	 -3.36567336 
 H 	 1.75246984 	 -0.66114240 	 -0.40175395 
 H 	 -1.00398001 	 -1.35079245 	 -2.62659024 
 C 	 4.22838612 	 2.03629138 	 -0.90549061 
 C 	 5.37245147 	 0.56379176 	 0.81989542 
 H 	 5.68461149 	 0.25943060 	 1.49646626 
 H 	 4.32023078 	 1.92105023 	 -1.08850622 
 H 	 5.57064282 	 -2.26291875 	 0.92442418 
 H 	 5.32054034 	 -1.30982549 	 0.83076382 
 C 	 -1.22922501 	 0.07249903 	 3.25890861 
 C 	 -2.04443238 	 3.46871073 	 2.42045988 
 H 	 -1.30343842 	 1.01541775 	 4.12107768 
 H 	 -1.77449463 	 -0.16896057 	 2.98710839 
 H 	 -1.58412478 	 2.61028169 	 2.57005103 
 H 	 -2.42476930 	 4.09913050 	 3.03771418 
 C 	 -0.10326681 	 -3.04417565 	 -1.60723055 
 C 	 -2.60917355 	 -2.52253370 	 -1.57447541 
 H 	 0.05405272 	 -2.53715142 	 -0.65152901 
 H 	 0.83094010 	 -3.01062194 	 -2.17507800 
 H 	 -3.33711545 	 -1.83141809 	 -2.10257090 
 H 	 -0.31611763 	 -4.10321106 	 -1.38531971 
 C 	 1.45352638 	 -3.82364121 	 2.71838603 
 C 	 2.97965810 	 -4.11503604 	 -0.04373863 
 H 	 2.17135218 	 -3.66577899 	 2.95208329 
 H 	 1.05453083 	 -3.94392684 	 2.33961138 
 H 	 3.40403426 	 -3.84548865 	 0.42391843 
 H 	 2.15373812 	 -4.13560667 	 -0.19889656 
 C 	 -0.94872528 	 -0.08774012 	 -5.46690514 
 C 	 -0.07529356 	 -0.80739639 	 -5.12748030 
 H 	 -1.69627663 	 -0.50487803 	 -6.49514963 
 H 	 -1.21736911 	 1.01261564 	 -5.25526170 
 H 	 0.19274976 	 -1.91107756 	 -5.34170890 
 H 	 0.67133425 	 -0.38887988 	 -4.10769967 
 C 	 -1.77269124 	 -3.46477009 	 2.92181656 
 C 	 -1.50741251 	 -3.17483368 	 1.95683740 
 H 	 -2.22358983 	 -4.49670944 	 3.34104631 
 H 	 -1.73840842 	 -2.80115457 	 3.90126643 
 H 	 -1.53961685 	 -3.85563971 	 0.95565941 
 H 	 -1.05601585 	 -2.16557422 	 1.51984786 
 C 	 3.24253114 	 -1.64390359 	 -2.60148763 
 C 	 3.21781983 	 -1.51310302 	 -3.12650452 
 H 	 4.05973641 	 -0.79061481 	 -1.74735174 
 H 	 3.20164724 	 -2.41098637 	 -1.55195186 
 H 	 3.26442261 	 -0.76247854 	 -4.19358545 
 H 	 2.39993510 	 -2.39069006 	 -3.96959990 
 C 	 -3.80007454 	 -4.23927879 	 -0.38850466 
 C 	 -3.08555189 	 -3.95408784 	 -1.60358241 
 H 	 -4.20917371 	 -5.39326608 	 -0.42615653 
 H 	 -4.06353833 	 -3.82440754 	 0.35555572 
 H 	 -2.88775869 	 -4.45227535 	 -2.28339288 
 H 	 -2.42738953 	 -2.02456927 	 -0.58958724 
 C 	 3.62518463 	 2.08586248 	 3.40897996 
 C 	 3.70567211 	 0.57057561 	 3.17923948 
 H 	 3.07039893 	 2.40115174 	 2.62348561 
 H 	 4.37254828 	 2.34649808 	 4.08630112 
 H 	 3.67603941 	 0.21370890 	 2.35403664 
 H 	 4.10865276 	 -0.15730566 	 4.23188166 
 C 	 4.22941830 	 -1.89234313 	 5.81990117 
 C 	 4.72095005 	 -2.09094028 	 6.40559917 
 H 	 3.81298186 	 -0.39356066 	 5.89741147 
 H 	 3.11953659 	 -2.00813761 	 6.03355970 
 H 	 5.86683443 	 -1.90772251 	 6.07704382 
 H 	 5.13605581 	 -3.19952723 	 6.37569332 
